@<TRIPOS>MOLECULE
smiles:CCCCCCCCCCCCCC...
56 55 1 0 0
SMALL
AMBER ff14SB


@<TRIPOS>ATOM
      1 C1         12.0728   -0.2785   -0.0000 C.3       1 OCT   -0.0921
      2 C2         10.7799    0.5620   -0.0000 C.3       1 OCT   -0.0804
      3 C3          9.5126   -0.3215    0.0000 C.3       1 OCT   -0.0794
      4 C4          8.2164    0.5196    0.0000 C.3       1 OCT   -0.0794
      5 C5          6.9514   -0.3670   -0.0000 C.3       1 OCT   -0.0794
      6 C6          5.6537    0.4708   -0.0000 C.3       1 OCT   -0.0794
      7 C7          4.3913   -0.4192    0.0000 C.3       1 OCT   -0.0794
      8 C8          3.0926    0.4165    0.0000 C.3       1 OCT   -0.0794
      9 C9          1.8317   -0.4753   -0.0000 C.3       1 OCT   -0.0784
     10 C10         0.5327    0.3596   -0.0000 C.3       1 OCT   -0.0794
     11 C11        -0.7287   -0.5317    0.0000 C.3       1 OCT   -0.0784
     12 C12        -2.0266    0.3056    0.0000 C.3       1 OCT   -0.0794
     13 C13        -3.2912   -0.5812    0.0000 C.3       1 OCT   -0.0794
     14 C14        -4.5862    0.2612   -0.0000 C.3       1 OCT   -0.0794
     15 C15        -5.8546   -0.6205    0.0000 C.3       1 OCT   -0.0794
     16 C16        -7.1462    0.2271   -0.0000 C.3       1 OCT   -0.0794
     17 C17        -8.4211   -0.6514   -0.0000 C.3       1 OCT   -0.1264
     18 C18        -9.7145    0.1579   -0.0000 C.2       1 OCT    0.6341
     19 O1        -10.8296   -0.5648   -0.0000 O.3       1 OCT   -0.6141
     20 O2         -9.8128    1.3648    0.0000 O.2       1 OCT   -0.5500
     21 H1         12.9553    0.3737    0.0000 H         1 OCT    0.0327
     22 H2         12.1227   -0.9192    0.8897 H         1 OCT    0.0327
     23 H3         12.1227   -0.9192   -0.8897 H         1 OCT    0.0327
     24 H4         10.7743    1.2148    0.8827 H         1 OCT    0.0387
     25 H5         10.7743    1.2148   -0.8827 H         1 OCT    0.0387
     26 H6          9.5237   -0.9742   -0.8829 H         1 OCT    0.0397
     27 H7          9.5237   -0.9742    0.8829 H         1 OCT    0.0397
     28 H8          8.2048    1.1723    0.8829 H         1 OCT    0.0397
     29 H9          8.2048    1.1723   -0.8829 H         1 OCT    0.0397
     30 H10         6.9638   -1.0197   -0.8829 H         1 OCT    0.0397
     31 H11         6.9638   -1.0197    0.8829 H         1 OCT    0.0397
     32 H12         5.6402    1.1233    0.8830 H         1 OCT    0.0397
     33 H13         5.6402    1.1233   -0.8830 H         1 OCT    0.0397
     34 H14         4.4048   -1.0718   -0.8829 H         1 OCT    0.0397
     35 H15         4.4048   -1.0718    0.8829 H         1 OCT    0.0397
     36 H16         3.0781    1.0690    0.8829 H         1 OCT    0.0397
     37 H17         3.0781    1.0690   -0.8829 H         1 OCT    0.0397
     38 H18         1.8461   -1.1279   -0.8830 H         1 OCT    0.0397
     39 H19         1.8461   -1.1279    0.8830 H         1 OCT    0.0397
     40 H20         0.5184    1.0122    0.8831 H         1 OCT    0.0397
     41 H21         0.5184    1.0122   -0.8831 H         1 OCT    0.0397
     42 H22        -0.7148   -1.1842   -0.8831 H         1 OCT    0.0397
     43 H23        -0.7148   -1.1842    0.8831 H         1 OCT    0.0397
     44 H24        -2.0386    0.9585    0.8827 H         1 OCT    0.0407
     45 H25        -2.0386    0.9585   -0.8827 H         1 OCT    0.0407
     46 H26        -3.2792   -1.2337   -0.8831 H         1 OCT    0.0397
     47 H27        -3.2792   -1.2337    0.8831 H         1 OCT    0.0397
     48 H28        -4.5957    0.9141    0.8830 H         1 OCT    0.0427
     49 H29        -4.5957    0.9141   -0.8830 H         1 OCT    0.0427
     50 H30        -5.8449   -1.2733   -0.8829 H         1 OCT    0.0407
     51 H31        -5.8449   -1.2733    0.8829 H         1 OCT    0.0407
     52 H32        -7.1553    0.8819    0.8820 H         1 OCT    0.0587
     53 H33        -7.1553    0.8819   -0.8820 H         1 OCT    0.0587
     54 H34        -8.4336   -1.3026   -0.8817 H         1 OCT    0.0807
     55 H35        -8.4336   -1.3026    0.8817 H         1 OCT    0.0807
     56 H36       -11.4604    0.1747    0.0000 H         1 OCT    0.4440
@<TRIPOS>BOND
     1    1    2 1
     2    2    3 1
     3    3    4 1
     4    4    5 1
     5    5    6 1
     6    6    7 1
     7    7    8 1
     8    8    9 1
     9    9   10 1
    10   10   11 1
    11   11   12 1
    12   12   13 1
    13   13   14 1
    14   14   15 1
    15   15   16 1
    16   16   17 1
    17   17   18 1
    18   18   19 1
    19   18   20 2
    20    1   21 1
    21    1   22 1
    22    1   23 1
    23    2   24 1
    24    2   25 1
    25    3   26 1
    26    3   27 1
    27    4   28 1
    28    4   29 1
    29    5   30 1
    30    5   31 1
    31    6   32 1
    32    6   33 1
    33    7   34 1
    34    7   35 1
    35    8   36 1
    36    8   37 1
    37    9   38 1
    38    9   39 1
    39   10   40 1
    40   10   41 1
    41   11   42 1
    42   11   43 1
    43   12   44 1
    44   12   45 1
    45   13   46 1
    46   13   47 1
    47   14   48 1
    48   14   49 1
    49   15   50 1
    50   15   51 1
    51   16   52 1
    52   16   53 1
    53   17   54 1
    54   17   55 1
    55   19   56 1
@<TRIPOS>SUBSTRUCTURE
     1 OCT     1 RESIDUE           4 A     OCT     0 ROOT
